<?xml version="1.0" encoding="UTF-8"?>

<!-- generated on Thu Jan 17 13:07:10 2019 by Netedit Version 0.32.0
<?xml version="1.0" encoding="UTF-8"?>

<configuration xmlns:xsi="http://www.w3.org/2001/XMLSchema-instance" xsi:noNamespaceSchemaLocation="http://sumo.dlr.de/xsd/netconvertConfiguration.xsd">

    <input>
        <sumo-net-file value="/Users/mac/src/join&amp;split%20front-%20back-center/cfg/freeway.net.xml"/>
    </input>

    <output>
        <output-file value="/Users/mac/src/join&amp;split%20front-%20back-center/cfg/freeway.net.xml"/>
    </output>

    <processing>
        <no-turnarounds value="true"/>
        <offset.disable-normalization value="true"/>
        <lefthand value="false"/>
        <junctions.corner-detail value="0"/>
        <rectangular-lane-cut value="false"/>
        <walkingareas value="false"/>
    </processing>

</configuration>
-->

<net version="0.27" xmlns:xsi="http://www.w3.org/2001/XMLSchema-instance" xsi:noNamespaceSchemaLocation="http://sumo.dlr.de/xsd/net_file.xsd">

    <location netOffset="0.00,0.00" convBoundary="0.00,-5000.00,5000.00,0.00" origBoundary="-10000000000.00,-10000000000.00,10000000000.00,10000000000.00" projParameter="!"/>

    <edge id=":1_0" function="internal">
        <lane id=":1_0_0" index="0" speed="100.00" length="17.79" shape="1493.99,-22.34 1497.35,-18.14 1499.54,-14.71 1502.20,-12.40 1506.95,-11.55"/>
    </edge>
    <edge id=":1_1" function="internal">
        <lane id=":1_1_0" index="0" speed="100.00" length="19.49" shape="1491.66,-20.01 1497.02,-14.86 1501.36,-11.19 1504.67,-8.98 1506.95,-8.25"/>
    </edge>
    <edge id=":1_2" function="internal">
        <lane id=":1_2_0" index="0" speed="100.00" length="22.03" shape="1489.32,-17.68 1495.20,-12.11 1500.09,-8.13 1504.01,-5.75 1506.95,-4.95"/>
    </edge>
    <edge id=":1_3" function="internal">
        <lane id=":1_3_0" index="0" speed="100.00" length="24.58" shape="1486.99,-15.34 1493.37,-9.35 1498.83,-5.07 1503.35,-2.51 1506.95,-1.65"/>
    </edge>
    <edge id=":1_4" function="internal">
        <lane id=":1_4_0" index="0" speed="100.00" length="21.53" shape="1485.42,-11.55 1506.95,-11.55"/>
        <lane id=":1_4_1" index="1" speed="100.00" length="21.53" shape="1485.42,-8.25 1506.95,-8.25"/>
        <lane id=":1_4_2" index="2" speed="100.00" length="21.53" shape="1485.42,-4.95 1506.95,-4.95"/>
        <lane id=":1_4_3" index="3" speed="100.00" length="21.53" shape="1485.42,-1.65 1506.95,-1.65"/>
    </edge>
    <edge id=":10_0" function="internal">
        <lane id=":10_0_0" index="0" speed="72.50" length="10.43" shape="17.68,-4010.68 15.00,-4007.86 13.08,-4005.54 11.93,-4003.72 11.55,-4002.39"/>
    </edge>
    <edge id=":10_1" function="internal">
        <lane id=":10_1_0" index="0" speed="72.50" length="12.99" shape="15.34,-4013.01 12.24,-4009.69 10.02,-4006.81 8.69,-4004.37 8.25,-4002.39"/>
    </edge>
    <edge id=":10_2" function="internal">
        <lane id=":10_2_0" index="0" speed="72.50" length="14.88" shape="15.34,-4013.01 13.42,-4011.19 9.88,-4007.81 6.47,-4004.37 4.95,-4002.39"/>
    </edge>
    <edge id=":10_3" function="internal">
        <lane id=":10_3_0" index="0" speed="100.00" length="12.19" shape="11.55,-4014.58 11.55,-4002.39"/>
        <lane id=":10_3_1" index="1" speed="100.00" length="12.19" shape="8.25,-4014.58 8.25,-4002.39"/>
        <lane id=":10_3_2" index="2" speed="100.00" length="12.19" shape="4.95,-4014.58 4.95,-4002.39"/>
        <lane id=":10_3_3" index="3" speed="100.00" length="12.19" shape="1.65,-4014.58 1.65,-4002.39"/>
    </edge>
    <edge id=":11_0" function="internal">
        <lane id=":11_0_0" index="0" speed="72.50" length="17.79" shape="11.55,-1506.95 12.40,-1502.20 14.71,-1499.54 18.14,-1497.35 22.34,-1493.99"/>
    </edge>
    <edge id=":11_1" function="internal">
        <lane id=":11_1_0" index="0" speed="72.50" length="20.31" shape="8.25,-1506.95 9.13,-1501.45 11.57,-1498.24 15.29,-1495.57 20.01,-1491.66"/>
    </edge>
    <edge id=":11_2" function="internal">
        <lane id=":11_2_0" index="0" speed="72.50" length="22.85" shape="4.95,-1506.95 5.86,-1500.69 8.43,-1496.94 12.45,-1493.79 17.68,-1489.32"/>
    </edge>
    <edge id=":11_3" function="internal">
        <lane id=":11_3_0" index="0" speed="72.50" length="23.53" shape="4.95,-1506.95 5.46,-1500.20 7.16,-1495.73 10.36,-1491.88 15.34,-1486.99"/>
    </edge>
    <edge id=":11_4" function="internal">
        <lane id=":11_4_0" index="0" speed="56.95" length="22.64" shape="1.65,-1506.95 3.20,-1500.25 6.60,-1496.18 10.00,-1492.12 11.55,-1485.42"/>
        <lane id=":11_4_1" index="1" speed="56.95" length="22.64" shape="1.65,-1506.95 2.68,-1500.42 4.95,-1496.18 7.22,-1491.95 8.25,-1485.42"/>
        <lane id=":11_4_2" index="2" speed="56.95" length="22.64" shape="1.65,-1506.95 2.17,-1500.52 3.30,-1496.18 4.43,-1491.85 4.95,-1485.42"/>
        <lane id=":11_4_3" index="3" speed="56.95" length="22.64" shape="1.65,-1506.95 1.65,-1485.42"/>
    </edge>
    <edge id=":2_0" function="internal">
        <lane id=":2_0_0" index="0" speed="72.50" length="10.43" shape="4002.39,-11.55 4003.72,-11.93 4005.54,-13.08 4007.86,-15.00 4010.68,-17.68"/>
    </edge>
    <edge id=":2_1" function="internal">
        <lane id=":2_1_0" index="0" speed="72.50" length="11.79" shape="4002.39,-11.55 4005.86,-11.58 4008.32,-11.95 4010.46,-13.07 4013.01,-15.34"/>
    </edge>
    <edge id=":2_2" function="internal">
        <lane id=":2_2_0" index="0" speed="100.00" length="12.19" shape="4002.39,-11.55 4014.58,-11.55"/>
        <lane id=":2_2_1" index="1" speed="100.00" length="12.19" shape="4002.39,-8.25 4014.58,-8.25"/>
        <lane id=":2_2_2" index="2" speed="100.00" length="12.19" shape="4002.39,-4.95 4014.58,-4.95"/>
        <lane id=":2_2_3" index="3" speed="100.00" length="12.19" shape="4002.39,-1.65 4014.58,-1.65"/>
    </edge>
    <edge id=":3_0" function="internal">
        <lane id=":3_0_0" index="0" speed="100.00" length="2.58" shape="4986.85,-11.55 4987.55,-11.65 4988.05,-11.95 4988.35,-12.45 4988.45,-13.15"/>
    </edge>
    <edge id=":3_1" function="internal">
        <lane id=":3_1_0" index="0" speed="100.00" length="7.90" shape="4986.85,-8.25 4988.99,-8.56 4990.52,-9.48 4991.44,-11.01 4991.75,-13.15"/>
    </edge>
    <edge id=":3_2" function="internal">
        <lane id=":3_2_0" index="0" speed="100.00" length="13.22" shape="4986.85,-4.95 4990.44,-5.46 4993.00,-7.00 4994.54,-9.56 4995.05,-13.15"/>
    </edge>
    <edge id=":3_3" function="internal">
        <lane id=":3_3_0" index="0" speed="100.00" length="18.55" shape="4986.85,-1.65 4991.88,-2.37 4995.48,-4.53 4997.63,-8.12 4998.35,-13.15"/>
    </edge>
    <edge id=":4_0" function="internal">
        <lane id=":4_0_0" index="0" speed="100.00" length="12.19" shape="4988.45,-985.42 4988.45,-997.61"/>
        <lane id=":4_0_1" index="1" speed="100.00" length="12.19" shape="4991.75,-985.42 4991.75,-997.61"/>
        <lane id=":4_0_2" index="2" speed="100.00" length="12.19" shape="4995.05,-985.42 4995.05,-997.61"/>
        <lane id=":4_0_3" index="3" speed="100.00" length="12.19" shape="4998.35,-985.42 4998.35,-997.61"/>
    </edge>
    <edge id=":4_4" function="internal">
        <lane id=":4_4_0" index="0" speed="72.50" length="10.84" shape="4982.32,-989.32 4984.82,-991.43 4986.75,-992.90 4988.01,-994.66 4988.45,-997.61"/>
    </edge>
    <edge id=":4_5" function="internal">
        <lane id=":4_5_0" index="0" speed="72.50" length="12.99" shape="4984.66,-986.99 4987.76,-990.31 4989.98,-993.19 4991.31,-995.63 4991.75,-997.61"/>
    </edge>
    <edge id=":4_6" function="internal">
        <lane id=":4_6_0" index="0" speed="72.50" length="14.88" shape="4984.66,-986.99 4986.58,-988.81 4990.12,-992.19 4993.53,-995.63 4995.05,-997.61"/>
    </edge>
    <edge id=":5_0" function="internal">
        <lane id=":5_0_0" index="0" speed="56.95" length="10.43" shape="4988.45,-4002.39 4988.07,-4003.72 4986.92,-4005.54 4985.00,-4007.86 4982.32,-4010.68"/>
    </edge>
    <edge id=":5_1" function="internal">
        <lane id=":5_1_0" index="0" speed="56.95" length="11.57" shape="4988.45,-4002.39 4988.21,-4005.61 4987.50,-4008.46 4986.32,-4010.92 4984.66,-4013.01"/>
    </edge>
    <edge id=":5_2" function="internal">
        <lane id=":5_2_0" index="0" speed="100.00" length="12.19" shape="4988.45,-4002.39 4988.45,-4014.58"/>
        <lane id=":5_2_1" index="1" speed="100.00" length="12.19" shape="4991.75,-4002.39 4991.75,-4014.58"/>
        <lane id=":5_2_2" index="2" speed="100.00" length="12.19" shape="4995.05,-4002.39 4995.05,-4014.58"/>
        <lane id=":5_2_3" index="3" speed="100.00" length="12.19" shape="4998.35,-4002.39 4998.35,-4014.58"/>
    </edge>
    <edge id=":6_0" function="internal">
        <lane id=":6_0_0" index="0" speed="100.00" length="2.58" shape="4988.45,-4986.85 4988.35,-4987.55 4988.05,-4988.05 4987.55,-4988.35 4986.85,-4988.45"/>
    </edge>
    <edge id=":6_1" function="internal">
        <lane id=":6_1_0" index="0" speed="100.00" length="7.90" shape="4991.75,-4986.85 4991.44,-4988.99 4990.52,-4990.52 4988.99,-4991.44 4986.85,-4991.75"/>
    </edge>
    <edge id=":6_2" function="internal">
        <lane id=":6_2_0" index="0" speed="100.00" length="13.22" shape="4995.05,-4986.85 4994.54,-4990.44 4993.00,-4993.00 4990.44,-4994.54 4986.85,-4995.05"/>
    </edge>
    <edge id=":6_3" function="internal">
        <lane id=":6_3_0" index="0" speed="100.00" length="18.55" shape="4998.35,-4986.85 4997.63,-4991.88 4995.48,-4995.48 4991.88,-4997.63 4986.85,-4998.35"/>
    </edge>
    <edge id=":7_0" function="internal">
        <lane id=":7_0_0" index="0" speed="72.50" length="10.43" shape="4010.68,-4982.32 4007.86,-4985.00 4005.54,-4986.92 4003.72,-4988.07 4002.39,-4988.45"/>
    </edge>
    <edge id=":7_1" function="internal">
        <lane id=":7_1_0" index="0" speed="72.50" length="12.99" shape="4013.01,-4984.66 4009.69,-4987.76 4006.81,-4989.98 4004.37,-4991.31 4002.39,-4991.75"/>
    </edge>
    <edge id=":7_2" function="internal">
        <lane id=":7_2_0" index="0" speed="72.50" length="14.88" shape="4013.01,-4984.66 4011.19,-4986.58 4007.81,-4990.12 4004.37,-4993.53 4002.39,-4995.05"/>
    </edge>
    <edge id=":7_3" function="internal">
        <lane id=":7_3_0" index="0" speed="100.00" length="12.19" shape="4014.58,-4988.45 4002.39,-4988.45"/>
        <lane id=":7_3_1" index="1" speed="100.00" length="12.19" shape="4014.58,-4991.75 4002.39,-4991.75"/>
        <lane id=":7_3_2" index="2" speed="100.00" length="12.19" shape="4014.58,-4995.05 4002.39,-4995.05"/>
        <lane id=":7_3_3" index="3" speed="100.00" length="12.19" shape="4014.58,-4998.35 4002.39,-4998.35"/>
    </edge>
    <edge id=":8_0" function="internal">
        <lane id=":8_0_0" index="0" speed="72.50" length="10.43" shape="997.61,-4988.45 996.28,-4988.07 994.46,-4986.92 992.14,-4985.00 989.32,-4982.32"/>
    </edge>
    <edge id=":8_1" function="internal">
        <lane id=":8_1_0" index="0" speed="72.50" length="11.57" shape="997.61,-4988.45 994.39,-4988.21 991.54,-4987.50 989.08,-4986.32 986.99,-4984.66"/>
    </edge>
    <edge id=":8_2" function="internal">
        <lane id=":8_2_0" index="0" speed="100.00" length="12.19" shape="997.61,-4988.45 985.42,-4988.45"/>
        <lane id=":8_2_1" index="1" speed="100.00" length="12.19" shape="997.61,-4991.75 985.42,-4991.75"/>
        <lane id=":8_2_2" index="2" speed="100.00" length="12.19" shape="997.61,-4995.05 985.42,-4995.05"/>
        <lane id=":8_2_3" index="3" speed="100.00" length="12.19" shape="997.61,-4998.35 985.42,-4998.35"/>
    </edge>
    <edge id=":9_0" function="internal">
        <lane id=":9_0_0" index="0" speed="100.00" length="2.58" shape="13.15,-4988.45 12.45,-4988.35 11.95,-4988.05 11.65,-4987.55 11.55,-4986.85"/>
    </edge>
    <edge id=":9_1" function="internal">
        <lane id=":9_1_0" index="0" speed="100.00" length="7.90" shape="13.15,-4991.75 11.01,-4991.44 9.47,-4990.52 8.56,-4988.99 8.25,-4986.85"/>
    </edge>
    <edge id=":9_2" function="internal">
        <lane id=":9_2_0" index="0" speed="100.00" length="13.22" shape="13.15,-4995.05 9.56,-4994.54 7.00,-4993.00 5.46,-4990.44 4.95,-4986.85"/>
    </edge>
    <edge id=":9_3" function="internal">
        <lane id=":9_3_0" index="0" speed="100.00" length="18.55" shape="13.15,-4998.35 8.12,-4997.63 4.53,-4995.48 2.37,-4991.88 1.65,-4986.85"/>
    </edge>
    <edge id=":e11_0" function="internal">
        <lane id=":e11_0_0" index="0" speed="45.00" length="3.85" shape="4396.51,-403.51 4397.27,-404.14 4398.10,-404.59 4399.00,-404.86 4399.98,-404.95"/>
    </edge>
    <edge id=":e11_1" function="internal">
        <lane id=":e11_1_0" index="0" speed="45.00" length="1.22" shape="4398.85,-401.18 4399.98,-401.65"/>
    </edge>
    <edge id=":e21_0" function="internal">
        <lane id=":e21_0_0" index="0" speed="13.89" length="1.22" shape="4598.42,-4394.58 4597.29,-4395.05"/>
    </edge>
    <edge id=":e21_1" function="internal">
        <lane id=":e21_1_0" index="0" speed="13.89" length="3.85" shape="4600.75,-4396.91 4600.00,-4397.54 4599.17,-4397.99 4598.26,-4398.26 4597.29,-4398.35"/>
    </edge>
    <edge id=":e31_0" function="internal">
        <lane id=":e31_0_0" index="0" speed="45.00" length="3.85" shape="603.49,-4596.49 602.73,-4595.86 601.90,-4595.41 601.00,-4595.14 600.02,-4595.05"/>
    </edge>
    <edge id=":e31_1" function="internal">
        <lane id=":e31_1_0" index="0" speed="45.00" length="1.26" shape="601.15,-4598.82 600.91,-4598.61 600.63,-4598.47 600.34,-4598.38 600.02,-4598.35"/>
    </edge>
    <edge id=":e4_0" function="internal">
        <lane id=":e4_0_0" index="0" speed="29.44" length="1.26" shape="604.32,-912.02 604.56,-911.81 604.83,-911.67 605.13,-911.58 605.45,-911.55"/>
    </edge>
    <edge id=":e4_1" function="internal">
        <lane id=":e4_1_0" index="0" speed="29.44" length="3.85" shape="601.98,-909.69 602.74,-909.06 603.57,-908.61 604.47,-908.34 605.45,-908.25"/>
    </edge>
    <edge id=":e4_2" function="internal">
        <lane id=":e4_2_0" index="0" speed="29.44" length="6.44" shape="599.65,-907.35 600.91,-906.30 602.30,-905.55 603.81,-905.10 605.45,-904.95"/>
    </edge>
    <edge id=":e4_3" function="internal">
        <lane id=":e4_3_0" index="0" speed="29.44" length="9.03" shape="597.32,-905.02 599.09,-903.54 601.03,-902.49 603.15,-901.86 605.45,-901.65"/>
    </edge>
    <edge id=":s21_0" function="internal">
        <lane id=":s21_0_0" index="0" speed="45.00" length="1.26" shape="4597.29,-604.95 4597.61,-604.98 4597.90,-605.07 4598.17,-605.21 4598.42,-605.42"/>
    </edge>
    <edge id=":s21_1" function="internal">
        <lane id=":s21_1_0" index="0" speed="45.00" length="3.85" shape="4597.29,-601.65 4598.26,-601.74 4599.17,-602.01 4600.00,-602.46 4600.75,-603.09"/>
    </edge>
    <edge id=":s31_0" function="internal">
        <lane id=":s31_0_0" index="0" speed="45.00" length="3.85" shape="4399.98,-4595.05 4399.00,-4595.14 4398.10,-4595.41 4397.27,-4595.86 4396.51,-4596.49"/>
    </edge>
    <edge id=":s31_1" function="internal">
        <lane id=":s31_1_0" index="0" speed="45.00" length="1.26" shape="4399.98,-4598.35 4399.66,-4598.38 4399.37,-4598.47 4399.09,-4598.61 4398.85,-4598.82"/>
    </edge>
    <edge id=":s41_0" function="internal">
        <lane id=":s41_0_0" index="0" speed="45.00" length="1.28" shape="402.71,-4395.05 402.34,-4395.04 402.08,-4394.98 401.86,-4394.84 401.58,-4394.58"/>
    </edge>
    <edge id=":s41_1" function="internal">
        <lane id=":s41_1_0" index="0" speed="45.00" length="3.85" shape="402.71,-4398.35 401.74,-4398.26 400.83,-4397.99 400.00,-4397.54 399.25,-4396.91"/>
    </edge>

    <edge id="0" from="0" to="1" priority="1">
        <lane id="0_0" index="0" speed="100.00" length="1485.42" shape="0.00,-11.55 1485.42,-11.55"/>
        <lane id="0_1" index="1" speed="100.00" length="1485.42" shape="0.00,-8.25 1485.42,-8.25"/>
        <lane id="0_2" index="2" speed="100.00" length="1485.42" shape="0.00,-4.95 1485.42,-4.95"/>
        <lane id="0_3" index="3" speed="100.00" length="1485.42" shape="0.00,-1.65 1485.42,-1.65"/>
    </edge>
    <edge id="1" from="1" to="2" priority="1">
        <lane id="1_0" index="0" speed="100.00" length="2495.44" shape="1506.95,-11.55 4002.39,-11.55"/>
        <lane id="1_1" index="1" speed="100.00" length="2495.44" shape="1506.95,-8.25 4002.39,-8.25"/>
        <lane id="1_2" index="2" speed="100.00" length="2495.44" shape="1506.95,-4.95 4002.39,-4.95"/>
        <lane id="1_3" index="3" speed="100.00" length="2495.44" shape="1506.95,-1.65 4002.39,-1.65"/>
    </edge>
    <edge id="10" from="10" to="11" priority="1">
        <lane id="10_0" index="0" speed="100.00" length="2495.44" shape="11.55,-4002.39 11.55,-1506.95"/>
        <lane id="10_1" index="1" speed="100.00" length="2495.44" shape="8.25,-4002.39 8.25,-1506.95"/>
        <lane id="10_2" index="2" speed="100.00" length="2495.44" shape="4.95,-4002.39 4.95,-1506.95"/>
        <lane id="10_3" index="3" speed="100.00" length="2495.44" shape="1.65,-4002.39 1.65,-1506.95"/>
    </edge>
    <edge id="11" from="11" to="gneJ40" priority="1">
        <lane id="11_0" index="0" speed="13.89" length="1485.42" shape="11.55,-1485.42 11.55,0.00"/>
        <lane id="11_1" index="1" speed="13.89" length="1485.42" shape="8.25,-1485.42 8.25,0.00"/>
        <lane id="11_2" index="2" speed="13.89" length="1485.42" shape="4.95,-1485.42 4.95,0.00"/>
        <lane id="11_3" index="3" speed="13.89" length="1485.42" shape="1.65,-1485.42 1.65,0.00"/>
    </edge>
    <edge id="2" from="2" to="3" priority="1">
        <lane id="2_0" index="0" speed="100.00" length="972.27" shape="4014.58,-11.55 4986.85,-11.55"/>
        <lane id="2_1" index="1" speed="100.00" length="972.27" shape="4014.58,-8.25 4986.85,-8.25"/>
        <lane id="2_2" index="2" speed="100.00" length="972.27" shape="4014.58,-4.95 4986.85,-4.95"/>
        <lane id="2_3" index="3" speed="100.00" length="972.27" shape="4014.58,-1.65 4986.85,-1.65"/>
    </edge>
    <edge id="3" from="3" to="4" priority="1">
        <lane id="3_0" index="0" speed="100.00" length="972.27" shape="4988.45,-13.15 4988.45,-985.42"/>
        <lane id="3_1" index="1" speed="100.00" length="972.27" shape="4991.75,-13.15 4991.75,-985.42"/>
        <lane id="3_2" index="2" speed="100.00" length="972.27" shape="4995.05,-13.15 4995.05,-985.42"/>
        <lane id="3_3" index="3" speed="100.00" length="972.27" shape="4998.35,-13.15 4998.35,-985.42"/>
    </edge>
    <edge id="4" from="4" to="5" priority="1">
        <lane id="4_0" index="0" speed="100.00" length="3004.77" shape="4988.45,-997.61 4988.45,-4002.39"/>
        <lane id="4_1" index="1" speed="100.00" length="3004.77" shape="4991.75,-997.61 4991.75,-4002.39"/>
        <lane id="4_2" index="2" speed="100.00" length="3004.77" shape="4995.05,-997.61 4995.05,-4002.39"/>
        <lane id="4_3" index="3" speed="100.00" length="3004.77" shape="4998.35,-997.61 4998.35,-4002.39"/>
    </edge>
    <edge id="5" from="5" to="6" priority="1">
        <lane id="5_0" index="0" speed="100.00" length="972.27" shape="4988.45,-4014.58 4988.45,-4986.85"/>
        <lane id="5_1" index="1" speed="100.00" length="972.27" shape="4991.75,-4014.58 4991.75,-4986.85"/>
        <lane id="5_2" index="2" speed="100.00" length="972.27" shape="4995.05,-4014.58 4995.05,-4986.85"/>
        <lane id="5_3" index="3" speed="100.00" length="972.27" shape="4998.35,-4014.58 4998.35,-4986.85"/>
    </edge>
    <edge id="6" from="6" to="7" priority="1">
        <lane id="6_0" index="0" speed="100.00" length="972.27" shape="4986.85,-4988.45 4014.58,-4988.45"/>
        <lane id="6_1" index="1" speed="100.00" length="972.27" shape="4986.85,-4991.75 4014.58,-4991.75"/>
        <lane id="6_2" index="2" speed="100.00" length="972.27" shape="4986.85,-4995.05 4014.58,-4995.05"/>
        <lane id="6_3" index="3" speed="100.00" length="972.27" shape="4986.85,-4998.35 4014.58,-4998.35"/>
    </edge>
    <edge id="7" from="7" to="8" priority="1">
        <lane id="7_0" index="0" speed="100.00" length="3004.77" shape="4002.39,-4988.45 997.61,-4988.45"/>
        <lane id="7_1" index="1" speed="100.00" length="3004.77" shape="4002.39,-4991.75 997.61,-4991.75"/>
        <lane id="7_2" index="2" speed="100.00" length="3004.77" shape="4002.39,-4995.05 997.61,-4995.05"/>
        <lane id="7_3" index="3" speed="100.00" length="3004.77" shape="4002.39,-4998.35 997.61,-4998.35"/>
    </edge>
    <edge id="8" from="8" to="9" priority="1">
        <lane id="8_0" index="0" speed="100.00" length="972.27" shape="985.42,-4988.45 13.15,-4988.45"/>
        <lane id="8_1" index="1" speed="100.00" length="972.27" shape="985.42,-4991.75 13.15,-4991.75"/>
        <lane id="8_2" index="2" speed="100.00" length="972.27" shape="985.42,-4995.05 13.15,-4995.05"/>
        <lane id="8_3" index="3" speed="100.00" length="972.27" shape="985.42,-4998.35 13.15,-4998.35"/>
    </edge>
    <edge id="9" from="9" to="10" priority="1">
        <lane id="9_0" index="0" speed="100.00" length="972.27" shape="11.55,-4986.85 11.55,-4014.58"/>
        <lane id="9_1" index="1" speed="100.00" length="972.27" shape="8.25,-4986.85 8.25,-4014.58"/>
        <lane id="9_2" index="2" speed="100.00" length="972.27" shape="4.95,-4986.85 4.95,-4014.58"/>
        <lane id="9_3" index="3" speed="100.00" length="972.27" shape="1.65,-4986.85 1.65,-4014.58"/>
    </edge>
    <edge id="e11" from="2" to="e11" priority="1">
        <lane id="e11_0" index="0" speed="45.00" length="545.66" shape="4010.68,-17.68 4396.51,-403.51"/>
        <lane id="e11_1" index="1" speed="45.00" length="545.66" shape="4013.01,-15.34 4398.85,-401.18"/>
    </edge>
    <edge id="e12" from="e11" to="exit1" priority="1">
        <lane id="e12_0" index="0" speed="45.00" length="400.02" shape="4399.98,-404.95 4800.00,-404.95"/>
        <lane id="e12_1" index="1" speed="45.00" length="400.02" shape="4399.98,-401.65 4800.00,-401.65"/>
    </edge>
    <edge id="e21" from="5" to="e21" priority="1">
        <lane id="e21_0" index="0" speed="13.89" length="542.93" shape="4982.32,-4010.68 4598.42,-4394.58"/>
        <lane id="e21_1" index="1" speed="13.89" length="542.93" shape="4984.66,-4013.01 4600.75,-4396.91"/>
    </edge>
    <edge id="e22" from="e21" to="exit2" priority="1">
        <lane id="e22_0" index="0" speed="13.89" length="397.29" shape="4597.29,-4395.05 4200.00,-4395.05"/>
        <lane id="e22_1" index="1" speed="13.89" length="397.29" shape="4597.29,-4398.35 4200.00,-4398.35"/>
    </edge>
    <edge id="e31" from="8" to="e31" priority="1">
        <lane id="e31_0" index="0" speed="45.00" length="545.66" shape="989.32,-4982.32 603.49,-4596.49"/>
        <lane id="e31_1" index="1" speed="45.00" length="545.66" shape="986.99,-4984.66 601.15,-4598.82"/>
    </edge>
    <edge id="e32" from="e31" to="exit3" priority="1">
        <lane id="e32_0" index="0" speed="45.00" length="400.02" shape="600.02,-4595.05 200.00,-4595.05"/>
        <lane id="e32_1" index="1" speed="45.00" length="400.02" shape="600.02,-4598.35 200.00,-4598.35"/>
    </edge>
    <edge id="e4" from="11" to="e4" priority="1">
        <lane id="e4_0" index="0" speed="45.00" length="823.03" shape="22.34,-1493.99 604.32,-912.02"/>
        <lane id="e4_1" index="1" speed="45.00" length="823.03" shape="20.01,-1491.66 601.98,-909.69"/>
        <lane id="e4_2" index="2" speed="45.00" length="823.03" shape="17.68,-1489.32 599.65,-907.35"/>
        <lane id="e4_3" index="3" speed="45.00" length="823.03" shape="15.34,-1486.99 597.32,-905.02"/>
    </edge>
    <edge id="exit4" from="e4" to="exit4" priority="1">
        <lane id="exit4_0" index="0" speed="13.89" length="394.55" shape="605.45,-911.55 1000.00,-911.55"/>
        <lane id="exit4_1" index="1" speed="13.89" length="394.55" shape="605.45,-908.25 1000.00,-908.25"/>
        <lane id="exit4_2" index="2" speed="13.89" length="394.55" shape="605.45,-904.95 1000.00,-904.95"/>
        <lane id="exit4_3" index="3" speed="13.89" length="394.55" shape="605.45,-901.65 1000.00,-901.65"/>
    </edge>
    <edge id="s1" from="s1" to="1" priority="1">
        <lane id="s1_0" index="0" speed="100.00" length="969.90" shape="808.17,-708.17 1493.99,-22.34"/>
        <lane id="s1_1" index="1" speed="100.00" length="969.90" shape="805.83,-705.83 1491.66,-20.01"/>
        <lane id="s1_2" index="2" speed="100.00" length="969.90" shape="803.50,-703.50 1489.32,-17.68"/>
        <lane id="s1_3" index="3" speed="100.00" length="969.90" shape="801.17,-701.17 1486.99,-15.34"/>
    </edge>
    <edge id="s21" from="source2" to="s21" priority="1">
        <lane id="s21_0" index="0" speed="45.00" length="397.29" shape="4200.00,-604.95 4597.29,-604.95"/>
        <lane id="s21_1" index="1" speed="45.00" length="397.29" shape="4200.00,-601.65 4597.29,-601.65"/>
    </edge>
    <edge id="s22" from="s21" to="4" priority="1">
        <lane id="s22_0" index="0" speed="45.00" length="542.93" shape="4598.42,-605.42 4982.32,-989.32"/>
        <lane id="s22_1" index="1" speed="45.00" length="542.93" shape="4600.75,-603.09 4984.66,-986.99"/>
    </edge>
    <edge id="s31" from="source3" to="s31" priority="1">
        <lane id="s31_0" index="0" speed="45.00" length="400.02" shape="4800.00,-4595.05 4399.98,-4595.05"/>
        <lane id="s31_1" index="1" speed="45.00" length="400.02" shape="4800.00,-4598.35 4399.98,-4598.35"/>
    </edge>
    <edge id="s32" from="s31" to="7" priority="1">
        <lane id="s32_0" index="0" speed="45.00" length="545.66" shape="4396.51,-4596.49 4010.68,-4982.32"/>
        <lane id="s32_1" index="1" speed="45.00" length="545.66" shape="4398.85,-4598.82 4013.01,-4984.66"/>
    </edge>
    <edge id="s41" from="source4" to="s41" priority="1">
        <lane id="s41_0" index="0" speed="45.00" length="397.29" shape="800.00,-4395.05 402.71,-4395.05"/>
        <lane id="s41_1" index="1" speed="45.00" length="397.29" shape="800.00,-4398.35 402.71,-4398.35"/>
    </edge>
    <edge id="s42" from="s41" to="10" priority="1">
        <lane id="s42_0" index="0" speed="45.00" length="542.93" shape="401.58,-4394.58 17.68,-4010.68"/>
        <lane id="s42_1" index="1" speed="45.00" length="542.93" shape="399.25,-4396.91 15.34,-4013.01"/>
    </edge>

    <junction id="0" type="dead_end" x="0.00" y="0.00" incLanes="" intLanes="" shape="0.00,-0.05 0.00,-13.15"/>
    <junction id="1" type="priority" x="1500.00" y="0.00" incLanes="s1_0 s1_1 s1_2 s1_3 0_0 0_1 0_2 0_3" intLanes=":1_0_0 :1_1_0 :1_2_0 :1_3_0 :1_4_0 :1_4_1 :1_4_2 :1_4_3" shape="1506.95,-0.05 1506.95,-13.15 1495.12,-23.47 1485.86,-14.21 1485.42,-13.15 1485.42,-0.05">
        <request index="0" response="00000000" foes="11110000" cont="0"/>
        <request index="1" response="00000000" foes="11110000" cont="0"/>
        <request index="2" response="00000000" foes="11110000" cont="0"/>
        <request index="3" response="00000000" foes="11110000" cont="0"/>
        <request index="4" response="00001111" foes="00001111" cont="0"/>
        <request index="5" response="00001111" foes="00001111" cont="0"/>
        <request index="6" response="00001111" foes="00001111" cont="0"/>
        <request index="7" response="00001111" foes="00001111" cont="0"/>
    </junction>
    <junction id="10" type="priority" x="0.00" y="-4000.00" incLanes="s42_0 s42_1 9_0 9_1 9_2 9_3" intLanes=":10_0_0 :10_1_0 :10_2_0 :10_3_0 :10_3_1 :10_3_2 :10_3_3" shape="0.05,-4002.39 13.15,-4002.39 18.81,-4009.54 14.21,-4014.14 13.15,-4014.58 0.05,-4014.58">
        <request index="0" response="1111000" foes="1111000" cont="0"/>
        <request index="1" response="1111000" foes="1111000" cont="0"/>
        <request index="2" response="1111000" foes="1111000" cont="0"/>
        <request index="3" response="0000000" foes="0000111" cont="0"/>
        <request index="4" response="0000000" foes="0000111" cont="0"/>
        <request index="5" response="0000000" foes="0000111" cont="0"/>
        <request index="6" response="0000000" foes="0000111" cont="0"/>
    </junction>
    <junction id="11" type="priority" x="0.00" y="-1500.00" incLanes="10_0 10_1 10_2 10_3" intLanes=":11_0_0 :11_1_0 :11_2_0 :11_3_0 :11_4_0 :11_4_1 :11_4_2 :11_4_3" shape="0.05,-1485.42 13.15,-1485.42 14.21,-1485.86 23.47,-1495.12 13.15,-1506.95 0.05,-1506.95">
        <request index="0" response="00000000" foes="00000000" cont="0"/>
        <request index="1" response="00000000" foes="00000000" cont="0"/>
        <request index="2" response="00000000" foes="00000000" cont="0"/>
        <request index="3" response="00000000" foes="00000000" cont="0"/>
        <request index="4" response="00000000" foes="00000000" cont="0"/>
        <request index="5" response="00000000" foes="00000000" cont="0"/>
        <request index="6" response="00000000" foes="00000000" cont="0"/>
        <request index="7" response="00000000" foes="00000000" cont="0"/>
    </junction>
    <junction id="2" type="priority" x="4000.00" y="0.00" incLanes="1_0 1_1 1_2 1_3" intLanes=":2_0_0 :2_1_0 :2_2_0 :2_2_1 :2_2_2 :2_2_3" shape="4014.58,-0.05 4014.58,-13.15 4014.14,-14.21 4009.54,-18.81 4002.39,-13.15 4002.39,-0.05">
        <request index="0" response="000000" foes="000000" cont="0"/>
        <request index="1" response="000000" foes="000000" cont="0"/>
        <request index="2" response="000000" foes="000000" cont="0"/>
        <request index="3" response="000000" foes="000000" cont="0"/>
        <request index="4" response="000000" foes="000000" cont="0"/>
        <request index="5" response="000000" foes="000000" cont="0"/>
    </junction>
    <junction id="3" type="priority" x="5000.00" y="0.00" incLanes="2_0 2_1 2_2 2_3" intLanes=":3_0_0 :3_1_0 :3_2_0 :3_3_0" shape="4999.95,-13.15 4986.85,-13.15 4986.85,-0.05">
        <request index="0" response="0000" foes="0000" cont="0"/>
        <request index="1" response="0000" foes="0000" cont="0"/>
        <request index="2" response="0000" foes="0000" cont="0"/>
        <request index="3" response="0000" foes="0000" cont="0"/>
    </junction>